Version 4
SHEET 1 908 680
WIRE -400 -80 -512 -80
WIRE 256 -80 -224 -80
WIRE 352 -80 256 -80
WIRE 496 -80 432 -80
WIRE 592 -80 576 -80
WIRE 736 -80 672 -80
WIRE 848 -80 816 -80
WIRE 848 -48 848 -80
WIRE 256 -16 256 -80
WIRE -400 0 -480 0
WIRE -336 0 -336 -80
WIRE -224 0 -224 -80
WIRE -224 0 -336 0
WIRE 848 64 848 32
WIRE -400 80 -448 80
WIRE -336 80 -336 0
WIRE -224 96 -224 0
WIRE -448 160 -448 80
WIRE -448 160 -880 160
WIRE -448 176 -448 160
WIRE -400 176 -448 176
WIRE 256 176 256 48
WIRE 848 176 848 144
WIRE 848 176 256 176
WIRE -480 192 -480 0
WIRE -480 192 -768 192
WIRE 256 208 256 176
WIRE -512 224 -512 -80
WIRE -512 224 -656 224
WIRE -880 240 -880 160
WIRE -768 240 -768 192
WIRE -656 240 -656 224
WIRE -480 256 -480 192
WIRE -400 256 -480 256
WIRE -336 256 -336 176
WIRE -224 256 -224 160
WIRE -224 256 -336 256
WIRE 80 288 -32 288
WIRE 208 288 160 288
WIRE -512 336 -512 224
WIRE -400 336 -512 336
WIRE -336 336 -336 256
WIRE -880 368 -880 320
WIRE -768 368 -768 320
WIRE -768 368 -880 368
WIRE -656 368 -656 320
WIRE -656 368 -768 368
WIRE -32 368 -32 288
WIRE -768 432 -768 368
WIRE -224 512 -224 256
WIRE -32 512 -32 448
WIRE -32 512 -224 512
WIRE 256 512 256 304
WIRE 256 512 -32 512
WIRE -768 544 -768 512
WIRE -32 544 -32 512
FLAG -32 544 0
FLAG -768 544 0
SYMBOL nmos 208 208 R0
SYMATTR InstName M1
SYMATTR Value IRFZ46N
SYMBOL diode 272 48 R180
WINDOW 0 24 64 Left 2
WINDOW 3 24 0 Left 2
SYMATTR InstName D1
SYMBOL ind 336 -64 R270
WINDOW 0 32 56 VTop 2
WINDOW 3 5 56 VBottom 2
SYMATTR InstName L1
SYMATTR Value 340µH
SYMBOL voltage -32 352 R0
WINDOW 3 24 96 Invisible 2
WINDOW 123 0 0 Left 0
WINDOW 39 0 0 Left 0
SYMATTR InstName V1
SYMATTR Value PULSE(0 10 0 0 0 8us 13us)
SYMBOL res 176 272 R90
WINDOW 0 0 56 VBottom 2
WINDOW 3 32 56 VTop 2
SYMATTR InstName R2
SYMATTR Value 10
SYMBOL voltage 848 48 R0
WINDOW 123 0 0 Left 0
WINDOW 39 0 0 Left 0
SYMATTR InstName V3
SYMATTR Value 12
SYMBOL res 832 -64 R0
SYMATTR InstName R1
SYMATTR Value 0.1
SYMBOL voltage -656 224 R0
WINDOW 123 0 0 Left 0
WINDOW 39 0 0 Left 0
SYMATTR InstName V4
SYMATTR Value SINE(0 15 50 0 0 240)
SYMBOL voltage -768 224 R0
WINDOW 123 0 0 Left 0
WINDOW 39 0 0 Left 0
SYMATTR InstName V5
SYMATTR Value SINE(0 15 50 0 0 120)
SYMBOL voltage -880 224 R0
WINDOW 123 0 0 Left 0
WINDOW 39 0 0 Left 0
SYMATTR InstName V6
SYMATTR Value SINE(0 15 50)
SYMBOL diode -400 -64 R270
WINDOW 0 32 32 VTop 2
WINDOW 3 0 32 VBottom 2
SYMATTR InstName D2
SYMBOL diode -400 16 R270
WINDOW 0 32 32 VTop 2
WINDOW 3 0 32 VBottom 2
SYMATTR InstName D3
SYMBOL diode -400 96 R270
WINDOW 0 32 32 VTop 2
WINDOW 3 0 32 VBottom 2
SYMATTR InstName D4
SYMBOL diode -336 320 R90
WINDOW 0 0 32 VBottom 2
WINDOW 3 32 32 VTop 2
SYMATTR InstName D5
SYMBOL diode -336 240 R90
WINDOW 0 0 32 VBottom 2
WINDOW 3 32 32 VTop 2
SYMATTR InstName D6
SYMBOL diode -336 160 R90
WINDOW 0 0 32 VBottom 2
WINDOW 3 32 32 VTop 2
SYMATTR InstName D7
SYMBOL cap -240 96 R0
SYMATTR InstName C2
SYMATTR Value 8000µF
SYMBOL res -784 416 R0
SYMATTR InstName R3
SYMATTR Value 25k
SYMBOL res 592 -96 R90
WINDOW 0 0 56 VBottom 2
WINDOW 3 32 56 VTop 2
SYMATTR InstName R4
SYMATTR Value 0.1
SYMBOL ind 576 -64 R270
WINDOW 0 32 56 VTop 2
WINDOW 3 5 56 VBottom 2
SYMATTR InstName L2
SYMATTR Value 340µH
SYMBOL res 832 -96 R90
WINDOW 0 0 56 VBottom 2
WINDOW 3 32 56 VTop 2
SYMATTR InstName R5
SYMATTR Value 0.1
TEXT -914 568 Left 2 !.tran 0 15ms 10ms
