Version 4
SHEET 1 1448 680
WIRE 112 96 -80 96
WIRE 256 96 176 96
WIRE 320 96 256 96
WIRE 320 112 320 96
WIRE -80 144 -80 96
WIRE 176 160 176 144
WIRE 320 176 320 112
WIRE 256 240 256 96
WIRE 256 240 176 240
WIRE -80 304 -80 224
WIRE 320 304 320 256
WIRE 320 304 -80 304
WIRE 320 336 320 304
FLAG 320 336 0
SYMBOL Misc\\SCR 112 112 R270
SYMATTR InstName U1
SYMATTR Value TN6050HP-12
SYMBOL voltage -80 128 R0
WINDOW 123 0 0 Left 0
WINDOW 39 0 0 Left 0
SYMATTR InstName V1
SYMATTR Value SINE(0 220V 50)
SYMBOL res 304 160 R0
SYMATTR InstName R1
SYMATTR Value 220
SYMBOL voltage 176 144 R0
WINDOW 123 0 0 Left 0
WINDOW 39 0 0 Left 0
SYMATTR InstName V2
SYMATTR Value PULSE(0 10V 5ms 0 0 1ms 20ms)
SYMBOL ind 304 96 R0
SYMATTR InstName L1
TEXT -114 360 Left 2 !.tran 20ms
TEXT -392 -248 Left 2 !.inc C:\\Program Files\\LTC\\LTspiceXVII\\lib\\st_high-temperature_scr_pspice\\st_high-temperature_scr.lib
