Version 4
SHEET 1 880 680
WIRE 112 -48 112 -64
WIRE 112 96 112 32
WIRE 112 208 112 176
FLAG 112 208 0
FLAG 112 -64 0
SYMBOL res 96 -64 R0
SYMATTR InstName R1
SYMATTR Value 1k
SYMBOL bv 112 80 R0
SYMATTR InstName B1
SYMATTR Value V=exp(-time/20m)*sin(2*pi*1000*time)
TEXT 78 232 Left 2 !.tran 20ms
