Version 4
SHEET 1 1372 1108
WIRE 560 -208 464 -208
WIRE 768 -208 640 -208
WIRE 880 -208 768 -208
WIRE 1088 -208 960 -208
WIRE 1312 -208 1088 -208
WIRE 544 -192 512 -192
WIRE 832 -192 816 -192
WIRE 848 -192 832 -192
WIRE 1168 -192 1136 -192
WIRE 464 -64 464 -112
WIRE 544 -64 464 -64
WIRE 768 -64 768 -112
WIRE 848 -64 768 -64
WIRE 1088 -64 1088 -112
WIRE 1168 -64 1088 -64
WIRE 464 0 464 -64
WIRE 832 0 832 -192
WIRE 832 0 528 0
WIRE 896 0 832 0
WIRE 1088 0 1088 -64
WIRE 1088 0 976 0
WIRE 464 48 464 0
WIRE 576 48 464 48
WIRE 832 48 832 0
WIRE 832 48 656 48
WIRE 1024 48 832 48
WIRE 1088 48 1088 0
WIRE 1136 128 1136 -192
WIRE 1136 128 624 128
WIRE 464 144 464 48
WIRE 624 144 624 128
WIRE 624 144 528 144
WIRE 688 144 624 144
WIRE 768 144 768 -64
WIRE 464 240 464 144
WIRE 624 240 624 144
WIRE 624 240 544 240
WIRE 704 240 624 240
WIRE 768 240 768 144
WIRE 768 320 768 240
WIRE 784 320 768 320
WIRE 944 320 848 320
WIRE 1008 320 944 320
WIRE 1088 320 1088 48
WIRE 768 416 768 320
WIRE 784 416 768 416
WIRE 944 416 944 320
WIRE 944 416 864 416
WIRE 1024 416 944 416
WIRE 1088 416 1088 320
WIRE 512 448 512 -192
WIRE 944 448 944 416
WIRE 944 448 512 448
WIRE 192 592 64 592
WIRE 464 592 464 240
WIRE 464 592 272 592
WIRE 1312 704 1312 -208
WIRE -16 736 -16 592
WIRE 768 736 768 416
WIRE 768 736 64 736
WIRE -16 880 -16 736
WIRE 1088 880 1088 416
WIRE 1088 880 64 880
WIRE -16 896 -16 880
WIRE 464 976 464 592
WIRE 768 976 768 736
WIRE 1088 976 1088 880
WIRE 768 1040 464 1040
WIRE 1088 1040 768 1040
WIRE 1312 1040 1312 784
WIRE 1312 1040 1088 1040
FLAG -16 896 0
SYMBOL voltage 80 592 R90
WINDOW 0 -32 56 VBottom 2
WINDOW 3 32 56 VTop 2
WINDOW 123 0 0 Left 0
WINDOW 39 0 0 Left 0
SYMATTR InstName V1
SYMATTR Value SINE(0 80 50)
SYMBOL voltage 80 736 R90
WINDOW 0 -32 56 VBottom 2
WINDOW 3 32 56 VTop 2
WINDOW 123 0 0 Left 0
WINDOW 39 0 0 Left 0
SYMATTR InstName V2
SYMATTR Value SINE(0 80 50 0 0 -120)
SYMBOL voltage 80 880 R90
WINDOW 0 -32 56 VBottom 2
WINDOW 3 32 56 VTop 2
WINDOW 123 0 0 Left 0
WINDOW 39 0 0 Left 0
SYMATTR InstName V3
SYMATTR Value SINE(0 80 50 0 0 -240)
SYMBOL pmos 512 -112 R180
SYMATTR InstName M1
SYMATTR Value SP8M51_P
SYMBOL pmos 816 -112 R180
SYMATTR InstName M2
SYMATTR Value SP8M51_P
SYMBOL pmos 1136 -112 R180
SYMATTR InstName M3
SYMATTR Value SP8M51_P
SYMBOL diode 480 1040 R180
WINDOW 0 24 64 Left 2
WINDOW 3 24 0 Left 2
SYMATTR InstName D1
SYMBOL diode 784 1040 R180
WINDOW 0 24 64 Left 2
WINDOW 3 24 0 Left 2
SYMATTR InstName D2
SYMBOL diode 1104 1040 R180
WINDOW 0 24 64 Left 2
WINDOW 3 24 0 Left 2
SYMATTR InstName D3
SYMBOL res 1296 688 R0
SYMATTR InstName R1
SYMATTR Value 5
SYMBOL diode 464 16 R270
WINDOW 0 32 32 VTop 2
WINDOW 3 0 32 VBottom 2
SYMATTR InstName D4
SYMBOL diode 1088 32 R90
WINDOW 0 0 32 VBottom 2
WINDOW 3 32 32 VTop 2
SYMATTR InstName D5
SYMBOL res 992 -16 R90
WINDOW 0 0 56 VBottom 2
WINDOW 3 32 56 VTop 2
SYMATTR InstName R2
SYMATTR Value 1e5
SYMBOL res 672 32 R90
WINDOW 0 0 56 VBottom 2
WINDOW 3 32 56 VTop 2
SYMATTR InstName R3
SYMATTR Value 1e5
SYMBOL res 656 -224 R90
WINDOW 0 0 56 VBottom 2
WINDOW 3 32 56 VTop 2
SYMATTR InstName R4
SYMATTR Value .001
SYMBOL res 976 -224 R90
WINDOW 0 0 56 VBottom 2
WINDOW 3 32 56 VTop 2
SYMATTR InstName R5
SYMATTR Value .001
SYMBOL zener 864 -64 R180
WINDOW 0 24 64 Left 2
WINDOW 3 24 0 Left 2
SYMATTR InstName D8
SYMATTR Value FTZU6_2E
SYMATTR Description Diode
SYMATTR Type diode
SYMBOL zener 832 -192 R0
SYMATTR InstName D6
SYMATTR Value FTZU6_2E
SYMATTR Description Diode
SYMATTR Type diode
SYMBOL diode 464 160 R270
WINDOW 0 32 32 VTop 2
WINDOW 3 0 32 VBottom 2
SYMATTR InstName D7
SYMBOL res 784 128 R90
WINDOW 0 0 56 VBottom 2
WINDOW 3 32 56 VTop 2
SYMATTR InstName R8
SYMATTR Value 1e5
SYMBOL diode 768 224 R90
WINDOW 0 0 32 VBottom 2
WINDOW 3 32 32 VTop 2
SYMATTR InstName D9
SYMBOL res 560 224 R90
WINDOW 0 0 56 VBottom 2
WINDOW 3 32 56 VTop 2
SYMATTR InstName R9
SYMATTR Value 1e5
SYMBOL zener 1184 -64 R180
WINDOW 0 24 64 Left 2
WINDOW 3 24 0 Left 2
SYMATTR InstName D10
SYMATTR Value FTZU6_2E
SYMATTR Description Diode
SYMATTR Type diode
SYMBOL zener 1152 -192 R0
SYMATTR InstName D11
SYMATTR Value FTZU6_2E
SYMATTR Description Diode
SYMATTR Type diode
SYMBOL diode 784 336 R270
WINDOW 0 32 32 VTop 2
WINDOW 3 0 32 VBottom 2
SYMATTR InstName D12
SYMBOL res 1104 304 R90
WINDOW 0 0 56 VBottom 2
WINDOW 3 32 56 VTop 2
SYMATTR InstName R10
SYMATTR Value 1e5
SYMBOL diode 1088 400 R90
WINDOW 0 0 32 VBottom 2
WINDOW 3 32 32 VTop 2
SYMATTR InstName D13
SYMBOL res 880 400 R90
WINDOW 0 0 56 VBottom 2
WINDOW 3 32 56 VTop 2
SYMATTR InstName R11
SYMATTR Value 1e5
SYMBOL zener 560 -64 R180
WINDOW 0 24 64 Left 2
WINDOW 3 24 0 Left 2
SYMATTR InstName D14
SYMATTR Value FTZU6_2E
SYMATTR Description Diode
SYMATTR Type diode
SYMBOL zener 528 -192 R0
SYMATTR InstName D15
SYMATTR Value FTZU6_2E
SYMATTR Description Diode
SYMATTR Type diode
SYMBOL res 288 576 R90
WINDOW 0 0 56 VBottom 2
WINDOW 3 32 56 VTop 2
SYMATTR InstName R12
SYMATTR Value 1e-2
TEXT -60 1090 Left 2 !.tran 0 .05 0 1e-5
